Version 4
SHEET 1 2120 1492
WIRE 1696 -144 1696 -192
WIRE 1488 -64 1328 -64
WIRE 1696 -48 1696 -64
WIRE 1728 -48 1696 -48
WIRE 1856 -48 1808 -48
WIRE 304 16 304 -16
WIRE 1696 32 1696 -48
WIRE 1744 32 1696 32
WIRE 1328 48 1328 -64
WIRE 1360 48 1328 48
WIRE 1856 48 1856 -48
WIRE 1856 48 1808 48
WIRE 1904 48 1856 48
WIRE 2016 48 1984 48
WIRE -80 64 -80 16
WIRE 1488 64 1488 -64
WIRE 1488 64 1424 64
WIRE 1536 64 1488 64
WIRE 1648 64 1600 64
WIRE 1744 64 1648 64
WIRE 1360 80 1296 80
WIRE 1648 96 1648 64
WIRE 304 160 304 96
WIRE 464 160 304 160
WIRE 624 160 544 160
WIRE -80 192 -80 144
WIRE 16 192 -80 192
WIRE 1648 208 1648 176
WIRE 304 224 304 160
WIRE -80 240 -80 192
WIRE 1296 240 1296 80
WIRE 1376 240 1296 240
WIRE 1488 240 1440 240
WIRE 976 256 976 224
WIRE 800 304 800 224
WIRE -80 352 -80 320
WIRE 304 352 304 304
WIRE 624 352 624 160
WIRE 736 352 624 352
WIRE 1296 352 1296 240
WIRE 1296 352 1152 352
WIRE 1392 352 1296 352
WIRE 1488 352 1488 240
WIRE 1488 352 1456 352
WIRE 1296 384 1296 352
WIRE 976 400 976 336
WIRE 976 400 800 400
WIRE 1088 400 976 400
WIRE 1392 400 1392 368
WIRE 624 432 624 352
WIRE 624 528 624 512
WIRE 1152 528 1152 448
WIRE 1296 528 1296 448
WIRE 1392 528 1392 480
WIRE 1680 672 1680 608
WIRE 1680 784 1680 752
WIRE 1728 784 1680 784
WIRE 1840 784 1808 784
WIRE 1456 848 1296 848
WIRE 1680 912 1680 784
WIRE 1728 912 1680 912
WIRE 304 928 304 880
WIRE 1296 928 1296 848
WIRE 1328 928 1296 928
WIRE 1840 928 1840 784
WIRE 1840 928 1792 928
WIRE 1904 928 1840 928
WIRE 2032 928 1984 928
WIRE 1456 944 1456 848
WIRE 1456 944 1392 944
WIRE 1488 944 1456 944
WIRE 1600 944 1552 944
WIRE 1728 944 1600 944
WIRE 1328 960 1296 960
WIRE 1600 976 1600 944
WIRE 304 1104 304 1008
WIRE 448 1104 304 1104
WIRE 624 1104 528 1104
WIRE 1600 1104 1600 1056
WIRE 1296 1152 1296 960
WIRE 1392 1152 1296 1152
WIRE 1504 1152 1456 1152
WIRE 976 1168 976 1120
WIRE 304 1200 304 1104
WIRE 800 1216 800 1120
WIRE 624 1264 624 1104
WIRE 736 1264 624 1264
WIRE 1296 1264 1296 1152
WIRE 1296 1264 1152 1264
WIRE 1392 1264 1296 1264
WIRE 1504 1264 1504 1152
WIRE 1504 1264 1456 1264
WIRE 976 1312 976 1248
WIRE 976 1312 800 1312
WIRE 1088 1312 976 1312
WIRE 1296 1312 1296 1264
WIRE 304 1328 304 1280
WIRE 1392 1328 1392 1280
WIRE 624 1344 624 1264
WIRE 624 1472 624 1424
WIRE 1152 1472 1152 1360
WIRE 1296 1472 1296 1376
WIRE 1392 1472 1392 1408
FLAG 16 192 0
FLAG -80 16 Vpos
FLAG -80 352 Vneg
FLAG 976 224 Vpos
FLAG 800 224 Vneg
FLAG 624 528 0
FLAG 304 -16 Vpos
FLAG 304 352 Vneg
FLAG 1152 528 0
FLAG 1296 528 0
FLAG 1392 32 Vpos
FLAG 1392 96 Vneg
FLAG 1648 208 0
FLAG 1696 -192 0
FLAG 2016 48 Vout1
FLAG 1776 16 Vpos
FLAG 1776 80 Vneg
FLAG 800 1120 Vneg
FLAG 976 1120 Vpos
FLAG 1152 1472 0
FLAG 624 1472 0
FLAG 304 1328 Vneg
FLAG 304 880 Vpos
FLAG 1296 1472 0
FLAG 1392 528 0
FLAG 1392 1472 0
FLAG 1360 912 Vpos
FLAG 1360 976 Vneg
FLAG 1760 960 Vneg
FLAG 1760 896 Vpos
FLAG 1680 608 0
FLAG 2032 928 Vout2
FLAG 1600 1104 0
SYMBOL voltage -80 48 R0
WINDOW 123 0 0 Left 0
WINDOW 39 0 0 Left 0
SYMATTR InstName V1
SYMATTR Value 9
SYMBOL voltage -80 224 R0
WINDOW 123 0 0 Left 0
WINDOW 39 0 0 Left 0
SYMATTR InstName V2
SYMATTR Value 9
SYMBOL res 288 0 R0
SYMATTR InstName R1
SYMATTR Value 150k
SYMBOL res 288 208 R0
SYMATTR InstName R2
SYMATTR Value 83k
SYMBOL res 560 144 R90
WINDOW 0 0 56 VBottom 2
WINDOW 3 32 56 VTop 2
SYMATTR InstName R3
SYMATTR Value 100k
SYMBOL res 640 528 R180
WINDOW 0 36 76 Left 2
WINDOW 3 36 40 Left 2
SYMATTR InstName R4
SYMATTR Value 2k
SYMBOL pnp 736 304 R0
SYMATTR InstName Q1
SYMATTR Value BC557B
SYMBOL res 960 240 R0
SYMATTR InstName R5
SYMATTR Value 1000000
SYMBOL npn 1088 352 R0
SYMATTR InstName Q2
SYMATTR Value BC547B
SYMBOL cap 1280 384 R0
SYMATTR InstName C1
SYMATTR Value .0000000022
SYMBOL Digital\\schmtinv 1392 288 R0
WINDOW 3 -1500 299 Left 2
SYMATTR InstName A1
SYMATTR Value Vhigh=9 Vlow=0 Vt=5 Vh=2 Trise=1n
SYMBOL diode 1440 224 R90
WINDOW 0 0 32 VBottom 2
WINDOW 3 32 32 VTop 2
SYMATTR InstName D1
SYMATTR Value 1N4148
SYMBOL OpAmps\\OP07 1392 0 R0
SYMATTR InstName U1
SYMBOL cap 1600 48 R90
WINDOW 0 0 32 VBottom 2
WINDOW 3 32 32 VTop 2
SYMATTR InstName C2
SYMATTR Value .00001
SYMBOL res 1632 80 R0
SYMATTR InstName R6
SYMATTR Value 100k
SYMBOL OpAmps\\OP07 1776 -16 R0
SYMATTR InstName U2
SYMBOL res 2000 32 R90
WINDOW 0 0 56 VBottom 2
WINDOW 3 32 56 VTop 2
SYMATTR InstName R7
SYMATTR Value 1k
SYMBOL res 1680 -160 R0
SYMATTR InstName R8
SYMATTR Value 47k
SYMBOL res 1824 -64 R90
WINDOW 0 0 56 VBottom 2
WINDOW 3 32 56 VTop 2
SYMATTR InstName R9
SYMATTR Value 100k
SYMBOL res 288 912 R0
SYMATTR InstName R10
SYMATTR Value 200k
SYMBOL res 288 1184 R0
SYMATTR InstName R11
SYMATTR Value 33k
SYMBOL res 544 1088 R90
WINDOW 0 0 56 VBottom 2
WINDOW 3 32 56 VTop 2
SYMATTR InstName R12
SYMATTR Value 100k
SYMBOL res 640 1440 R180
WINDOW 0 36 76 Left 2
WINDOW 3 36 40 Left 2
SYMATTR InstName R13
SYMATTR Value 2k
SYMBOL pnp 736 1216 R0
SYMATTR InstName Q3
SYMATTR Value BC557B
SYMBOL npn 1088 1264 R0
SYMATTR InstName Q4
SYMATTR Value BC547B
SYMBOL res 960 1152 R0
SYMATTR InstName R14
SYMATTR Value 1000000
SYMBOL cap 1280 1312 R0
SYMATTR InstName C3
SYMATTR Value .0000000022
SYMBOL Digital\\schmtinv 1392 1200 R0
WINDOW 3 -1502 -571 Left 2
SYMATTR InstName A2
SYMATTR Value Vhigh=9 Vlow=0 Vt=5 Vh=2 Trise=1n
SYMBOL voltage 1392 384 R0
WINDOW 123 0 0 Left 0
WINDOW 39 0 0 Left 0
SYMATTR InstName V3
SYMATTR Value 0
SYMBOL voltage 1392 1312 R0
WINDOW 123 0 0 Left 0
WINDOW 39 0 0 Left 0
SYMATTR InstName V4
SYMATTR Value 0
SYMBOL diode 1456 1136 R90
WINDOW 0 0 32 VBottom 2
WINDOW 3 32 32 VTop 2
SYMATTR InstName D2
SYMATTR Value 1N4148
SYMBOL OpAmps\\OP07 1360 880 R0
SYMATTR InstName U3
SYMBOL cap 1552 928 R90
WINDOW 0 0 32 VBottom 2
WINDOW 3 32 32 VTop 2
SYMATTR InstName C4
SYMATTR Value .00001
SYMBOL res 1584 960 R0
SYMATTR InstName R15
SYMATTR Value 100k
SYMBOL OpAmps\\OP07 1760 864 R0
SYMATTR InstName U4
SYMBOL res 1824 768 R90
WINDOW 0 0 56 VBottom 2
WINDOW 3 32 56 VTop 2
SYMATTR InstName R16
SYMATTR Value 100k
SYMBOL res 1696 768 R180
WINDOW 0 36 76 Left 2
WINDOW 3 36 40 Left 2
SYMATTR InstName R17
SYMATTR Value 47k
SYMBOL res 2000 912 R90
WINDOW 0 0 56 VBottom 2
WINDOW 3 32 56 VTop 2
SYMATTR InstName R18
SYMATTR Value 1k
TEXT -112 552 Left 2 !.tran 0 1.1 1
