Version 4
SHEET 1 2104 680
WIRE 1696 -144 1696 -192
WIRE 1488 -64 1328 -64
WIRE 1696 -48 1696 -64
WIRE 1728 -48 1696 -48
WIRE 1856 -48 1808 -48
WIRE 304 16 304 -16
WIRE 1696 32 1696 -48
WIRE 1744 32 1696 32
WIRE 1328 48 1328 -64
WIRE 1360 48 1328 48
WIRE 1856 48 1856 -48
WIRE 1856 48 1808 48
WIRE 1904 48 1856 48
WIRE 2016 48 1984 48
WIRE -80 64 -80 16
WIRE 1488 64 1488 -64
WIRE 1488 64 1424 64
WIRE 1536 64 1488 64
WIRE 1648 64 1600 64
WIRE 1744 64 1648 64
WIRE 1360 80 1296 80
WIRE 1648 96 1648 64
WIRE 304 160 304 96
WIRE 464 160 304 160
WIRE 624 160 544 160
WIRE -80 192 -80 144
WIRE 16 192 -80 192
WIRE 1648 208 1648 176
WIRE 304 224 304 160
WIRE -80 240 -80 192
WIRE 1296 240 1296 80
WIRE 1376 240 1296 240
WIRE 1488 240 1440 240
WIRE 976 256 976 224
WIRE 800 304 800 224
WIRE -80 352 -80 320
WIRE 304 352 304 304
WIRE 624 352 624 160
WIRE 736 352 624 352
WIRE 1296 352 1296 240
WIRE 1296 352 1152 352
WIRE 1392 352 1296 352
WIRE 1488 352 1488 240
WIRE 1488 352 1456 352
WIRE 1296 384 1296 352
WIRE 976 400 976 336
WIRE 976 400 800 400
WIRE 1088 400 976 400
WIRE 624 432 624 352
WIRE 624 528 624 512
WIRE 1152 528 1152 448
WIRE 1296 528 1296 448
FLAG 16 192 0
FLAG -80 16 Vpos
FLAG -80 352 Vneg
FLAG 976 224 Vpos
FLAG 800 224 Vneg
FLAG 624 528 0
FLAG 304 -16 Vpos
FLAG 304 352 Vneg
FLAG 1152 528 0
FLAG 1296 528 0
FLAG 1392 32 Vpos
FLAG 1392 96 Vneg
FLAG 1648 208 0
FLAG 1696 -192 0
FLAG 2016 48 Vout1
FLAG 1776 16 Vpos
FLAG 1776 80 Vneg
SYMBOL voltage -80 48 R0
WINDOW 123 0 0 Left 0
WINDOW 39 0 0 Left 0
SYMATTR InstName V1
SYMATTR Value 9
SYMBOL voltage -80 224 R0
WINDOW 123 0 0 Left 0
WINDOW 39 0 0 Left 0
SYMATTR InstName V2
SYMATTR Value 9
SYMBOL res 288 0 R0
SYMATTR InstName R1
SYMATTR Value 150k
SYMBOL res 288 208 R0
SYMATTR InstName R2
SYMATTR Value 83k
SYMBOL res 560 144 R90
WINDOW 0 0 56 VBottom 2
WINDOW 3 32 56 VTop 2
SYMATTR InstName R3
SYMATTR Value 100k
SYMBOL res 640 528 R180
WINDOW 0 36 76 Left 2
WINDOW 3 36 40 Left 2
SYMATTR InstName R4
SYMATTR Value 2k
SYMBOL pnp 736 304 R0
SYMATTR InstName Q1
SYMBOL res 960 240 R0
SYMATTR InstName R5
SYMATTR Value 1000000
SYMBOL npn 1088 352 R0
SYMATTR InstName Q2
SYMBOL cap 1280 384 R0
SYMATTR InstName C1
SYMATTR Value .0000000022
SYMBOL Digital\\schmtinv 1392 288 R0
SYMATTR InstName A1
SYMBOL diode 1440 224 R90
WINDOW 0 0 32 VBottom 2
WINDOW 3 32 32 VTop 2
SYMATTR InstName D1
SYMATTR Value 1N4148
SYMBOL OpAmps\\OP07 1392 0 R0
SYMATTR InstName U1
SYMBOL cap 1600 48 R90
WINDOW 0 0 32 VBottom 2
WINDOW 3 32 32 VTop 2
SYMATTR InstName C2
SYMATTR Value .000001
SYMBOL res 1632 80 R0
SYMATTR InstName R6
SYMATTR Value 100k
SYMBOL OpAmps\\OP07 1776 -16 R0
SYMATTR InstName U2
SYMBOL res 2000 32 R90
WINDOW 0 0 56 VBottom 2
WINDOW 3 32 56 VTop 2
SYMATTR InstName R7
SYMATTR Value 1k
SYMBOL res 1680 -160 R0
SYMATTR InstName R8
SYMATTR Value 47k
SYMBOL res 1824 -64 R90
WINDOW 0 0 56 VBottom 2
WINDOW 3 32 56 VTop 2
SYMATTR InstName R9
SYMATTR Value 100k
TEXT -112 552 Left 2 !.tran 0 2 1
